424

C        0.67600554       17.00299200       10.41377339
C        1.43900652       18.17799800       10.43377339
C        2.83799376       18.17701200       10.45877339
C        3.60099474       17.00200600       10.46477339
C        2.83799376       15.82601400       10.45777339
C        1.43900652       15.82700000       10.43377339
C        5.01499782       17.00000000       10.47277339
C        5.77899756       18.17500600       10.47477339
C        7.17700326       18.17599200       10.46577339
C        7.94100300       17.00000000       10.45177339
C        7.17600450       15.82400800       10.46177339
C        5.77799880       15.82499400       10.47277339
C        9.35300856       17.00000000       10.42977339
C       10.10600472       18.18700800       10.41777339
C       11.50299444       18.19598400       10.39377339
C       12.21299226       16.99799400       10.38377339
C       11.50099692       15.80099000       10.39577339
C       10.10400720       15.81098600       10.41577339
C       13.62300030       17.00299200       10.30177339
C       14.33599440       18.20101600       10.32077339
C       15.73200258       18.19000000       10.35477339
C       16.48200246       17.00200600       10.37677339
C       15.73100382       15.81401200       10.35877339
C       14.33399688       15.80598800       10.31977339
C        0.67299204       14.44598800       10.41677339
C        1.37699730       13.22100200       10.49677339
C        0.68299686       12.00699800       10.38877339
C        2.81199156       13.16299800       10.81577339
C        3.26000430       13.68098800       12.04077339
C        4.60400808       13.58599200       12.39377339
C        5.51399898       12.97501200       11.53377339
C        5.07499230       12.45301000       10.31677339
C        3.73100574       12.54501400        9.95677339
C        1.41000804       10.72900600       10.32777339
C        2.02600188       10.20299200       11.46977339
C        2.69799516        8.98300400       11.40577339
C        2.75800686        8.27801400       10.20477339
C        2.14499208        8.79600400        9.06377339
C        1.47499632       10.01500600        9.12177339
C       16.47499392       14.43799800       10.45477339
C       15.78900078       13.20301600       10.54277339
C       16.49600232       11.99900800       10.39477339
C       15.78600450       10.71499800       10.28777339
C       15.16899468       10.13400600       11.40177339
C       14.52300360        8.90398800       11.28177339
C       14.49099162        8.24500000       10.05377339
C       15.10500516        8.81898800        8.94077339
C       15.74600244       10.04999200        9.05377339
C       14.36599164       13.11801600       10.90477339
C       13.95000810       13.61700000       12.14877339
C       12.61800666       13.50000600       12.54277339
C       11.69000364       12.88698600       11.70177339
C       12.09699834       12.38501000       10.46577339
C       13.42899978       12.49700600       10.06777339
C        8.00099748       19.38200600       10.47377339
C        7.28099484       20.58999200       10.63577339
C        7.95600162       21.81899000       10.59177339
C        9.36399492       21.84598600       10.57977339
C       10.08900858       20.64599000       10.64577339
C        9.41799684       19.40801600       10.49277339
C        5.84999562       20.60801200       10.97577339
C        5.42700354       20.00998600       12.17377339
C        4.08699480       20.06499800       12.55077339
C        3.15599550       20.71399000       11.73977339
C        3.56999874       21.31300200       10.55077339
C        4.91000748       21.26298800       10.16877339
C       11.51599554       20.72898400       10.99277339
C       12.42400614       21.45301400       10.20877339
C       13.75900386       21.55800600       10.59577339
C       14.20000806       20.94600600       11.77077339
C       13.29900600       20.23000000       12.55777339
C       11.96500704       20.12001000       12.17477339
C        7.21099554       23.08698600       10.61777339
C        6.59100666       23.52599400       11.79377339
C        5.90100126       24.73799200       11.81277339
C        5.82900444       25.51999200       10.66177339
C        6.44699580       25.08900800        9.48777339
C        7.13300616       23.87799600        9.46177339
C       10.05400032       23.14400400       10.54177339
C       10.06999770       23.88098800        9.34777339
C       10.69300008       25.12501400        9.30077339
C       11.31099144       25.64300400       10.43877339
C       11.30499888       24.91200400       11.62577339
C       10.67700270       23.66801200       11.67977339
H        3.30599892       14.83199000       10.42977339
H        5.30799612       14.83100400       10.51077339
H        7.64700594       14.83100400       10.49677339
H        9.62999226       14.81900200       10.39277339
H       12.04800744       14.84198600       10.37977339
H       13.78500606       14.84899000       10.31477339
H        0.96900384       19.17100200       10.46577339
H        3.30799644       19.17100200       10.50377339
H        5.30899488       19.17001600       10.44477339
H       12.05200248       19.15301600       10.39277339
H       13.78999986       19.15801400       10.29877339
H       16.20699906       19.18198400       10.33677339
H        1.97900850       10.75600200       12.41977339
H        3.17900142        8.57799600       12.30777339
H        3.28700526        7.31499800       10.15677339
H        2.18499414        8.23901600        8.11677339
H        0.98599998       10.42001400        8.22177339
H        2.54399670       14.16899000       12.71977339
H        4.94599728       13.99899000       13.35477339
H        6.57499206       12.90398600       11.81277339
H        5.78900238       11.96099600        9.63977339
H        3.38300676       12.11899400        9.00377339
H       16.23599754       10.50001600        8.17777339
H       15.08699304        8.29899200        7.97277339
H       13.98599790        7.27198800        9.96377339
H       14.03700354        8.45498400       12.16077339
H       15.19100184       10.65199600       12.37177339
H       14.67899958       14.10598800       12.81077339
H       12.30200244       13.89301200       13.51977339
H       10.63899816       12.79800800       12.01477339
H       11.36800686       11.89500200        9.80477339
H       13.75099656       12.08700000        9.09877339
H        6.15799254       19.49498800       12.81377339
H        3.76399926       19.58998400       13.48977339
H        2.09799870       20.75200200       12.03777339
H        2.84000850       21.83398400        9.91377339
H        5.23899558       21.75000400        9.23777339
H        6.64900362       22.91198800       12.70477339
H        5.41699872       25.07500000       12.73977339
H        5.28500742       26.47699000       10.67877339
H        7.62499878       23.54200800        8.53677339
H       10.67199168       23.09300400       12.61877339
H       11.79399522       25.31500600       12.52377339
H       11.80200252       26.62601200       10.39977339
H       10.69000380       25.70199400        8.36477339
H        9.57600756       23.47601400        8.45177339
H       11.25700674       19.54901400       12.79477339
H       13.64099520       19.74900200       13.48677339
H       15.25299384       21.02998600       12.07477339
H       14.46400788       22.12998800        9.97677339
H       12.07500840       21.94999200        9.29077339
H        6.39499140       25.70801200        8.57977339
Au        0.00000000        0.00000000        0.14104882
Au        1.43500000        2.59215608        0.14104882
Au        2.87000000        0.00000000        0.14104882
Au        4.30500000        2.59215608        0.14104882
Au        2.87000000        5.18431217        0.14104882
Au        4.30500000        7.77646825        0.14104882
Au        5.74000000        5.18431217        0.14104882
Au        7.17500000        7.77646825        0.14104882
Au        5.74000000       10.36862434        0.14104882
Au        7.17500000       12.96078042        0.14104882
Au        8.61000000       10.36862434        0.14104882
Au       10.04500000       12.96078042        0.14104882
Au        8.61000000       15.55293650        0.14104882
Au       10.04500000       18.14509258        0.14104882
Au       11.48000000       15.55293650        0.14104882
Au       12.91500000       18.14509258        0.14104882
Au       11.48000000       20.73724866        0.14104882
Au       12.91500000       23.32940475        0.14104882
Au       14.35000000       20.73724866        0.14104882
Au       15.78500000       23.32940475        0.14104882
Au       14.35000000       25.92156083        0.14104882
Au       15.78500000       28.51371692        0.14104882
Au        0.00000000       25.92156083        0.14104882
Au        1.43500000       28.51371692        0.14104882
Au        5.74000000        0.00000000        0.14104882
Au        7.17500000        2.59215608        0.14104882
Au        8.61000000        0.00000000        0.14104882
Au       10.04500000        2.59215608        0.14104882
Au        8.61000000        5.18431217        0.14104882
Au       10.04500000        7.77646825        0.14104882
Au       11.48000000        5.18431217        0.14104882
Au       12.91500000        7.77646825        0.14104882
Au       11.48000000       10.36862434        0.14104882
Au       12.91500000       12.96078042        0.14104882
Au       14.35000000       10.36862434        0.14104882
Au       15.78500000       12.96078042        0.14104882
Au       14.35000000       15.55293650        0.14104882
Au       15.78500000       18.14509258        0.14104882
Au        0.00000000       15.55293650        0.14104882
Au        1.43500000       18.14509258        0.14104882
Au        0.00000000       20.73724866        0.14104882
Au        1.43500000       23.32940475        0.14104882
Au        2.87000000       20.73724866        0.14104882
Au        4.30500000       23.32940475        0.14104882
Au        2.87000000       25.92156083        0.14104882
Au        4.30500000       28.51371692        0.14104882
Au        5.74000000       25.92156083        0.14104882
Au        7.17500000       28.51371692        0.14104882
Au       11.48000000        0.00000000        0.14104882
Au       12.91500000        2.59215608        0.14104882
Au       14.35000000        0.00000000        0.14104882
Au       15.78500000        2.59215608        0.14104882
Au       14.35000000        5.18431217        0.14104882
Au       15.78500000        7.77646825        0.14104882
Au        0.00000000        5.18431217        0.14104882
Au        1.43500000        7.77646825        0.14104882
Au        0.00000000       10.36862434        0.14104882
Au        1.43500000       12.96078042        0.14104882
Au        2.87000000       10.36862434        0.14104882
Au        4.30500000       12.96078042        0.14104882
Au        2.87000000       15.55293650        0.14104882
Au        4.30500000       18.14509258        0.14104882
Au        5.74000000       15.55293650        0.14104882
Au        7.17500000       18.14509258        0.14104882
Au        5.74000000       20.73724866        0.14104882
Au        7.17500000       23.32940475        0.14104882
Au        8.61000000       20.73724866        0.14104882
Au       10.04500000       23.32940475        0.14104882
Au        8.61000000       25.92156083        0.14104882
Au       10.04500000       28.51371692        0.14104882
Au       11.48000000       25.92156083        0.14104882
Au       12.91500000       28.51371692        0.14104882
Au        5.74000000        3.45620812        2.58495701
Au        4.30500000        0.86405203        2.58495701
Au        2.87000000        3.45620812        2.58495701
Au        1.43500000        0.86405203        2.58495701
Au        8.61000000        8.64052027        2.58495701
Au        7.17500000        6.04836419        2.58495701
Au        5.74000000        8.64052027        2.58495701
Au        4.30500000        6.04836419        2.58495701
Au       11.48000000       13.82483244        2.58495701
Au       10.04500000       11.23267636        2.58495701
Au        8.61000000       13.82483244        2.58495701
Au        7.17500000       11.23267636        2.58495701
Au       14.35000000       19.00914461        2.58495701
Au       12.91500000       16.41698853        2.58495701
Au       11.48000000       19.00914461        2.58495701
Au       10.04500000       16.41698853        2.58495701
Au        0.00000000       24.19345678        2.58495701
Au       15.78500000       21.60130070        2.58495701
Au       14.35000000       24.19345678        2.58495701
Au       12.91500000       21.60130070        2.58495701
Au        2.87000000       29.37776895        2.58495701
Au        1.43500000       26.78561286        2.58495701
Au        0.00000000       29.37776895        2.58495701
Au       15.78500000       26.78561286        2.58495701
Au       11.48000000        3.45620812        2.58495701
Au       10.04500000        0.86405203        2.58495701
Au        8.61000000        3.45620812        2.58495701
Au        7.17500000        0.86405203        2.58495701
Au       14.35000000        8.64052027        2.58495701
Au       12.91500000        6.04836419        2.58495701
Au       11.48000000        8.64052027        2.58495701
Au       10.04500000        6.04836419        2.58495701
Au        0.00000000       13.82483244        2.58495701
Au       15.78500000       11.23267636        2.58495701
Au       14.35000000       13.82483244        2.58495701
Au       12.91500000       11.23267636        2.58495701
Au        2.87000000       19.00914461        2.58495701
Au        1.43500000       16.41698853        2.58495701
Au        0.00000000       19.00914461        2.58495701
Au       15.78500000       16.41698853        2.58495701
Au        5.74000000       24.19345678        2.58495701
Au        4.30500000       21.60130070        2.58495701
Au        2.87000000       24.19345678        2.58495701
Au        1.43500000       21.60130070        2.58495701
Au        8.61000000       29.37776895        2.58495701
Au        7.17500000       26.78561286        2.58495701
Au        5.74000000       29.37776895        2.58495701
Au        4.30500000       26.78561286        2.58495701
Au        0.00000000        3.45620812        2.58495701
Au       15.78500000        0.86405203        2.58495701
Au       14.35000000        3.45620812        2.58495701
Au       12.91500000        0.86405203        2.58495701
Au        2.87000000        8.64052027        2.58495701
Au        1.43500000        6.04836419        2.58495701
Au        0.00000000        8.64052027        2.58495701
Au       15.78500000        6.04836419        2.58495701
Au        5.74000000       13.82483244        2.58495701
Au        4.30500000       11.23267636        2.58495701
Au        2.87000000       13.82483244        2.58495701
Au        1.43500000       11.23267636        2.58495701
Au        8.61000000       19.00914461        2.58495701
Au        7.17500000       16.41698853        2.58495701
Au        5.74000000       19.00914461        2.58495701
Au        4.30500000       16.41698853        2.58495701
Au       11.48000000       24.19345678        2.58495701
Au       10.04500000       21.60130070        2.58495701
Au        8.61000000       24.19345678        2.58495701
Au        7.17500000       21.60130070        2.58495701
Au       14.35000000       29.37776895        2.58495701
Au       12.91500000       26.78561286        2.58495701
Au       11.48000000       29.37776895        2.58495701
Au       10.04500000       26.78561286        2.58495701
Au        2.87000000        1.72810405        5.02886521
Au        4.30500000        4.32026014        5.02886521
Au        5.74000000        1.72810405        5.02886521
Au        7.17500000        4.32026014        5.02886521
Au        5.74000000        6.91241622        5.02886521
Au        7.17500000        9.50457231        5.02886521
Au        8.61000000        6.91241622        5.02886521
Au       10.04500000        9.50457231        5.02886521
Au        8.61000000       12.09672839        5.02886521
Au       10.04500000       14.68888447        5.02886521
Au       11.48000000       12.09672839        5.02886521
Au       12.91500000       14.68888447        5.02886521
Au       11.48000000       17.28104056        5.02886521
Au       12.91500000       19.87319664        5.02886521
Au       14.35000000       17.28104056        5.02886521
Au       15.78500000       19.87319664        5.02886521
Au       14.35000000       22.46535273        5.02886521
Au       15.78500000       25.05750880        5.02886521
Au        0.00000000       22.46535273        5.02886521
Au        1.43500000       25.05750880        5.02886521
Au        0.00000000       27.64966489        5.02886521
Au        1.43500000       30.24182097        5.02886521
Au        2.87000000       27.64966489        5.02886521
Au        4.30500000       30.24182097        5.02886521
Au        8.61000000        1.72810405        5.02886521
Au       10.04500000        4.32026014        5.02886521
Au       11.48000000        1.72810405        5.02886521
Au       12.91500000        4.32026014        5.02886521
Au       11.48000000        6.91241622        5.02886521
Au       12.91500000        9.50457231        5.02886521
Au       14.35000000        6.91241622        5.02886521
Au       15.78500000        9.50457231        5.02886521
Au       14.35000000       12.09672839        5.02886521
Au       15.78500000       14.68888447        5.02886521
Au        0.00000000       12.09672839        5.02886521
Au        1.43500000       14.68888447        5.02886521
Au        0.00000000       17.28104056        5.02886521
Au        1.43500000       19.87319664        5.02886521
Au        2.87000000       17.28104056        5.02886521
Au        4.30500000       19.87319664        5.02886521
Au        2.87000000       22.46535273        5.02886521
Au        4.30500000       25.05750880        5.02886521
Au        5.74000000       22.46535273        5.02886521
Au        7.17500000       25.05750880        5.02886521
Au        5.74000000       27.64966489        5.02886521
Au        7.17500000       30.24182097        5.02886521
Au        8.61000000       27.64966489        5.02886521
Au       10.04500000       30.24182097        5.02886521
Au       14.35000000        1.72810405        5.02886521
Au       15.78500000        4.32026014        5.02886521
Au        0.00000000        1.72810405        5.02886521
Au        1.43500000        4.32026014        5.02886521
Au        0.00000000        6.91241622        5.02886521
Au        1.43500000        9.50457231        5.02886521
Au        2.87000000        6.91241622        5.02886521
Au        4.30500000        9.50457231        5.02886521
Au        2.87000000       12.09672839        5.02886521
Au        4.30500000       14.68888447        5.02886521
Au        5.74000000       12.09672839        5.02886521
Au        7.17500000       14.68888447        5.02886521
Au        5.74000000       17.28104056        5.02886521
Au        7.17500000       19.87319664        5.02886521
Au        8.61000000       17.28104056        5.02886521
Au       10.04500000       19.87319664        5.02886521
Au        8.61000000       22.46535273        5.02886521
Au       10.04500000       25.05750880        5.02886521
Au       11.48000000       22.46535273        5.02886521
Au       12.91500000       25.05750880        5.02886521
Au       11.48000000       27.64966489        5.02886521
Au       12.91500000       30.24182097        5.02886521
Au       14.35000000       27.64966489        5.02886521
Au       15.78500000       30.24182097        5.02886521
Au        5.74000000        0.00000000        7.47277339
Au        7.17500000        2.59215608        7.47277339
Au        5.74000000        5.18431217        7.47277339
Au        4.30500000        2.59215608        7.47277339
Au        8.61000000        5.18431217        7.47277339
Au       10.04500000        7.77646825        7.47277339
Au        8.61000000       10.36862434        7.47277339
Au        7.17500000        7.77646825        7.47277339
Au       11.48000000       10.36862434        7.47277339
Au       12.91500000       12.96078042        7.47277339
Au       11.48000000       15.55293650        7.47277339
Au       10.04500000       12.96078042        7.47277339
Au       14.35000000       15.55293650        7.47277339
Au       15.78500000       18.14509258        7.47277339
Au       14.35000000       20.73724866        7.47277339
Au       12.91500000       18.14509258        7.47277339
Au        0.00000000       20.73724866        7.47277339
Au        1.43500000       23.32940475        7.47277339
Au        0.00000000       25.92156083        7.47277339
Au       15.78500000       23.32940475        7.47277339
Au        2.87000000       25.92156083        7.47277339
Au        4.30500000       28.51371692        7.47277339
Au        2.87000000       31.10587300        7.47277339
Au        1.43500000       28.51371692        7.47277339
Au       11.48000000        0.00000000        7.47277339
Au       12.91500000        2.59215608        7.47277339
Au       11.48000000        5.18431217        7.47277339
Au       10.04500000        2.59215608        7.47277339
Au       14.35000000        5.18431217        7.47277339
Au       15.78500000        7.77646825        7.47277339
Au       14.35000000       10.36862434        7.47277339
Au       12.91500000        7.77646825        7.47277339
Au        0.00000000       10.36862434        7.47277339
Au        1.43500000       12.96078042        7.47277339
Au        0.00000000       15.55293650        7.47277339
Au       15.78500000       12.96078042        7.47277339
Au        2.87000000       15.55293650        7.47277339
Au        4.30500000       18.14509258        7.47277339
Au        2.87000000       20.73724866        7.47277339
Au        1.43500000       18.14509258        7.47277339
Au        5.74000000       20.73724866        7.47277339
Au        7.17500000       23.32940475        7.47277339
Au        5.74000000       25.92156083        7.47277339
Au        4.30500000       23.32940475        7.47277339
Au        8.61000000       25.92156083        7.47277339
Au       10.04500000       28.51371692        7.47277339
Au        8.61000000       31.10587300        7.47277339
Au        7.17500000       28.51371692        7.47277339
Au        0.00000000        0.00000000        7.47277339
Au        1.43500000        2.59215608        7.47277339
Au        0.00000000        5.18431217        7.47277339
Au       15.78500000        2.59215608        7.47277339
Au        2.87000000        5.18431217        7.47277339
Au        4.30500000        7.77646825        7.47277339
Au        2.87000000       10.36862434        7.47277339
Au        1.43500000        7.77646825        7.47277339
Au        5.74000000       10.36862434        7.47277339
Au        7.17500000       12.96078042        7.47277339
Au        5.74000000       15.55293650        7.47277339
Au        4.30500000       12.96078042        7.47277339
Au        8.61000000       15.55293650        7.47277339
Au       10.04500000       18.14509258        7.47277339
Au        8.61000000       20.73724866        7.47277339
Au        7.17500000       18.14509258        7.47277339
Au       11.48000000       20.73724866        7.47277339
Au       12.91500000       23.32940475        7.47277339
Au       11.48000000       25.92156083        7.47277339
Au       10.04500000       23.32940475        7.47277339
Au       14.35000000       25.92156083        7.47277339
Au       15.78500000       28.51371692        7.47277339
Au       14.35000000       31.10587300        7.47277339
Au       12.91500000       28.51371692        7.47277339
lattice vectors
     17.22000000 0.0 0.0  
 0.0      31.10587300 0.0 
 0.0  0.0       23.51977339
