424

C        0.73313426       16.99048292       12.63554663
C        1.47812401       18.16931879       12.84229929
C        2.84199790       18.15898204       12.65085095
C        3.51325579       16.98702227       12.25149839
C        2.79802847       15.76893902       12.11600119
C        1.41040902       15.81256557       12.32103991
C        4.92856426       16.99686557       11.99125367
C        5.59604787       18.19110796       11.65671725
C        6.95742680       18.21404069       11.44863129
C        7.70556975       17.02521923       11.57279281
C        7.03131008       15.83146991       11.83114075
C        5.64672599       15.77514901       12.05137059
C        4.92136989       14.50521161       12.20414437
C        3.52787330       14.51018377       11.90200943
C        5.54567329       13.26828566       12.53670835
C        4.86727516       12.05793656       12.30479631
C        3.59096854       12.07046563       11.68572821
C        2.90889924       13.28800767       11.50916671
C        6.87934163       13.23684002       13.19805545
C        7.95385164       12.50136361       12.67116835
C        9.19722182       12.50517028       13.30477351
C        9.38496106       13.23584711       14.48162201
C        8.31802763       13.96027978       15.02207991
C        7.07699881       13.96101778       14.38474959
C        5.49387358       10.76152965       12.68810007
C        5.76110700       10.48150484       14.03657987
C        6.34116097        9.26845134       14.41082799
C        6.67179062        8.31906084       13.43918907
C        6.41400168        8.59091603       12.09206189
C        5.82497482        9.80056844       11.72106489
C        2.96839540       10.79102149       11.24238219
C        2.63544196        9.78800799       12.16500241
C        2.05014485        8.59482586       11.73923183
C        1.79787118        8.38163403       10.38053653
C        2.13092772        9.37296958        9.45271545
C        2.70708574       10.56986240        9.88191407
C        1.57853996       13.28224379       10.84024281
C        1.38426405       14.05832221        9.68617523
C        0.14636796       14.08159868        9.04277613
C       15.95754410       13.33052304        9.54477415
C       16.14235048       12.54744857       10.68791475
C        0.50419095       12.51911008       11.32676871
C       15.39401873       15.81764347       12.76660633
C       14.03263768       15.84053203       12.55809465
C       15.47456717       18.19388909       12.34470865
C       16.14428864       17.00243522       12.62226131
C       14.09049412       18.24980729       12.12164693
C       13.36889816       19.51869022       11.94502017
C       11.97462093       19.52260980       12.24360043
C       13.99790790       20.74731796       11.59129305
C       13.32241518       21.96356198       11.79814001
C       12.04396009       21.96623526       12.41230863
C       11.35813009       20.75404537       12.61036031
C       15.33222667       20.76230230       10.93071967
C       15.52735739       20.01530890        9.75788709
C       16.76866364       19.99888106        9.12106611
C        0.95972202       20.72904632        9.64812895
C        0.77401875       21.48409075       10.80990889
C       16.40909773       21.50485791       11.44308971
C       10.02646528       20.77812349       13.27543729
C        9.82898006       20.02836868       14.44620173
C        8.59108184       20.02415978       15.08958469
C        7.52751932       20.76985775       14.57186177
C        7.71529834       21.52608755       13.41132457
C        8.95529059       21.53391962       12.77105641
C       13.95339555       23.25068311       11.39155057
C       14.22172959       23.50487463       10.03830477
C       14.80485443       24.70949779        9.64180627
C       15.13844203       25.67532797       10.59592257
C       14.88015109       25.42874606       11.94781437
C       14.28739810       24.22805024       12.34091645
C       11.42314418       23.25611784       12.82718129
C       11.15911685       23.50554249       14.18221617
C       10.58413861       24.71165475       14.58566111
C       10.25579596       25.68489934       13.63712663
C       10.51082150       25.44350788       12.28371895
C       11.09450351       24.24064007       11.88351475
C       13.36942330       17.03085888       12.20122129
C       11.95488962       17.03988203       11.93786199
C       11.24226342       18.26143706       12.05195061
C       11.28118984       15.86334930       11.55654997
C        9.91722789       15.85199843       11.36539073
C        9.85454232       18.21613509       11.84949999
C        9.17338502       17.03464406       11.55620423
H        0.98409884       19.08981748       13.15443625
H        3.41737962       19.06705635       12.83422065
H        0.83189381       14.90419291       12.20059195
H        5.01890109       19.10835751       11.53484363
H        7.44394581       19.15360689       11.18559819
H        7.60817263       14.91613942       11.89075827
H        7.80924886       11.92765985       11.75444233
H       10.02413364       11.93463903       12.87641989
H       10.35850362       13.24214136       14.97504317
H        8.45564464       14.53316988       15.94153361
H        6.24740666       14.54027755       14.79547271
H        5.51746490       11.23020490       14.79302437
H        6.54069210        9.06635204       15.46528065
H        7.12884883        7.37113768       13.73041239
H        6.66922900        7.85578337       11.32591937
H        5.60997609       10.00511914       10.67072751
H        2.84592544        9.94714618       13.22413915
H        1.79448733        7.82590118       12.47146469
H        1.34433141        7.44630593       10.04651201
H        1.93781036        9.21564992        8.38944107
H        2.95227942       11.35110947        9.15967639
H        2.21303818       14.65964512        9.30633935
H        0.01143720       14.69376810        8.14869987
H       14.98615817       13.35649707        9.04731555
H       15.31576542       11.95420715       11.08475177
H        0.64689229       11.90354124       12.21639949
H       15.88107279       14.88310478       13.04657335
H       13.45218473       14.92783926       12.69739387
H       16.05642945       19.10507430       12.26978399
H       14.69560830       19.43149130        9.35798737
H        0.02573636       19.40855755        8.21232851
H        1.93347072       20.70947562        9.15563379
H        1.60262873       22.06120420       11.22602203
H       16.26637921       22.09826845       12.34745829
H       10.65619100       19.43332900       14.83890589
H        8.45347059       19.43117558       15.99608373
H        6.55660214       20.76009356       15.07056511
H        6.89151793       22.11422529       13.00123039
H        9.10020331       22.12783577       11.86723571
H       13.97676395       22.74264277        9.29591091
H       15.00381143       24.89233602        8.58380097
H       15.59739652       26.61688606       10.28748715
H       15.13704004       26.17737581       12.70021301
H       14.07199205       24.04322597       13.39494133
H       11.40100010       22.73834296       14.92034487
H       10.38708862       24.88998444       15.64479847
H        9.80288949       26.62755689       13.95113489
H       10.25786082       26.19756199       11.53535059
H       11.30669372       24.05963621       10.82826207
H       11.85532263       14.95158401       11.38733883
H        9.42438555       14.92653383       11.06665727
H        9.28048135       19.12889429       11.95505673
Au        0.00000000        0.00000000        0.24315505
Au        1.40653374        2.61825548        0.24315505
Au        2.81306748        0.00000000        0.24315505
Au        4.21960122        2.61825548        0.24315505
Au        2.81306748        5.23651097        0.24315505
Au        4.21960122        7.85476645        0.24315505
Au        5.62613496        5.23651097        0.24315505
Au        7.03266870        7.85476645        0.24315505
Au        5.62613496       10.47302194        0.24315505
Au        7.03266870       13.09127742        0.24315505
Au        8.43920244       10.47302194        0.24315505
Au        9.84573618       13.09127742        0.24315505
Au        8.43920244       15.70953289        0.24315505
Au        9.84573618       18.32778838        0.24315505
Au       11.25226992       15.70953289        0.24315505
Au       12.65880367       18.32778838        0.24315505
Au       11.25226992       20.94604386        0.24315505
Au       12.65880367       23.56429935        0.24315505
Au       14.06533741       20.94604386        0.24315505
Au       15.47187115       23.56429935        0.24315505
Au       14.06533741       26.18255483        0.24315505
Au       15.47187115       28.80081031        0.24315505
Au        0.00000000       26.18255483        0.24315505
Au        1.40653374       28.80081031        0.24315505
Au        5.62613496        0.00000000        0.24315505
Au        7.03266870        2.61825548        0.24315505
Au        8.43920244        0.00000000        0.24315505
Au        9.84573618        2.61825548        0.24315505
Au        8.43920244        5.23651097        0.24315505
Au        9.84573618        7.85476645        0.24315505
Au       11.25226992        5.23651097        0.24315505
Au       12.65880367        7.85476645        0.24315505
Au       11.25226992       10.47302194        0.24315505
Au       12.65880367       13.09127742        0.24315505
Au       14.06533741       10.47302194        0.24315505
Au       15.47187115       13.09127742        0.24315505
Au       14.06533741       15.70953289        0.24315505
Au       15.47187115       18.32778838        0.24315505
Au        0.00000000       15.70953289        0.24315505
Au        1.40653374       18.32778838        0.24315505
Au        0.00000000       20.94604386        0.24315505
Au        1.40653374       23.56429935        0.24315505
Au        2.81306748       20.94604386        0.24315505
Au        4.21960122       23.56429935        0.24315505
Au        2.81306748       26.18255483        0.24315505
Au        4.21960122       28.80081031        0.24315505
Au        5.62613496       26.18255483        0.24315505
Au        7.03266870       28.80081031        0.24315505
Au       11.25226992        0.00000000        0.24315505
Au       12.65880367        2.61825548        0.24315505
Au       14.06533741        0.00000000        0.24315505
Au       15.47187115        2.61825548        0.24315505
Au       14.06533741        5.23651097        0.24315505
Au       15.47187115        7.85476645        0.24315505
Au        0.00000000        5.23651097        0.24315505
Au        1.40653374        7.85476645        0.24315505
Au        0.00000000       10.47302194        0.24315505
Au        1.40653374       13.09127742        0.24315505
Au        2.81306748       10.47302194        0.24315505
Au        4.21960122       13.09127742        0.24315505
Au        2.81306748       15.70953289        0.24315505
Au        4.21960122       18.32778838        0.24315505
Au        5.62613496       15.70953289        0.24315505
Au        7.03266870       18.32778838        0.24315505
Au        5.62613496       20.94604386        0.24315505
Au        7.03266870       23.56429935        0.24315505
Au        8.43920244       20.94604386        0.24315505
Au        9.84573618       23.56429935        0.24315505
Au        8.43920244       26.18255483        0.24315505
Au        9.84573618       28.80081031        0.24315505
Au       11.25226992       26.18255483        0.24315505
Au       12.65880366       28.80081031        0.24315505
Au        5.62613496        3.49100732        2.71166999
Au        4.21960122        0.87275183        2.71166999
Au        2.81306748        3.49100732        2.71166999
Au        1.40653374        0.87275183        2.71166999
Au        8.43920244        8.72751827        2.71166999
Au        7.03266870        6.10926279        2.71166999
Au        5.62613496        8.72751827        2.71166999
Au        4.21960122        6.10926279        2.71166999
Au       11.25226992       13.96402924        2.71166999
Au        9.84573618       11.34577376        2.71166999
Au        8.43920244       13.96402924        2.71166999
Au        7.03266870       11.34577376        2.71166999
Au       14.06533741       19.20054021        2.71166999
Au       12.65880367       16.58228472        2.71166999
Au       11.25226992       19.20054021        2.71166999
Au        9.84573618       16.58228472        2.71166999
Au        0.00000000       24.43705118        2.71166999
Au       15.47187115       21.81879569        2.71166999
Au       14.06533741       24.43705118        2.71166999
Au       12.65880367       21.81879569        2.71166999
Au        2.81306748       29.67356214        2.71166999
Au        1.40653374       27.05530666        2.71166999
Au        0.00000000       29.67356214        2.71166999
Au       15.47187115       27.05530666        2.71166999
Au       11.25226992        3.49100732        2.71166999
Au        9.84573618        0.87275183        2.71166999
Au        8.43920244        3.49100732        2.71166999
Au        7.03266870        0.87275183        2.71166999
Au       14.06533741        8.72751827        2.71166999
Au       12.65880367        6.10926279        2.71166999
Au       11.25226992        8.72751827        2.71166999
Au        9.84573618        6.10926279        2.71166999
Au        0.00000000       13.96402924        2.71166999
Au       15.47187115       11.34577376        2.71166999
Au       14.06533741       13.96402924        2.71166999
Au       12.65880367       11.34577376        2.71166999
Au        2.81306748       19.20054021        2.71166999
Au        1.40653374       16.58228472        2.71166999
Au        0.00000000       19.20054021        2.71166999
Au       15.47187115       16.58228472        2.71166999
Au        5.62613496       24.43705118        2.71166999
Au        4.21960122       21.81879569        2.71166999
Au        2.81306748       24.43705118        2.71166999
Au        1.40653374       21.81879569        2.71166999
Au        8.43920244       29.67356214        2.71166999
Au        7.03266870       27.05530666        2.71166999
Au        5.62613496       29.67356214        2.71166999
Au        4.21960122       27.05530666        2.71166999
Au        0.00000000        3.49100732        2.71166999
Au       15.47187115        0.87275183        2.71166999
Au       14.06533741        3.49100732        2.71166999
Au       12.65880367        0.87275183        2.71166999
Au        2.81306748        8.72751827        2.71166999
Au        1.40653374        6.10926279        2.71166999
Au        0.00000000        8.72751827        2.71166999
Au       15.47187115        6.10926279        2.71166999
Au        5.62613496       13.96402924        2.71166999
Au        4.21960122       11.34577376        2.71166999
Au        2.81306748       13.96402924        2.71166999
Au        1.40653374       11.34577376        2.71166999
Au        8.43920244       19.20054021        2.71166999
Au        7.03266870       16.58228472        2.71166999
Au        5.62613496       19.20054021        2.71166999
Au        4.21960122       16.58228472        2.71166999
Au       11.25226992       24.43705118        2.71166999
Au        9.84573618       21.81879569        2.71166999
Au        8.43920244       24.43705118        2.71166999
Au        7.03266870       21.81879569        2.71166999
Au       14.06533740       29.67356214        2.71166999
Au       12.65880366       27.05530666        2.71166999
Au       11.25226992       29.67356214        2.71166999
Au        9.84573618       27.05530666        2.71166999
Au        2.81306748        1.74550365        5.18018493
Au        4.21960122        4.36375914        5.18018493
Au        5.62613496        1.74550365        5.18018493
Au        7.03266870        4.36375914        5.18018493
Au        5.62613496        6.98201462        5.18018493
Au        7.03266870        9.60027010        5.18018493
Au        8.43920244        6.98201462        5.18018493
Au        9.84573618        9.60027010        5.18018493
Au        8.43920244       12.21852559        5.18018493
Au        9.84573618       14.83678107        5.18018493
Au       11.25226992       12.21852559        5.18018493
Au       12.65880367       14.83678107        5.18018493
Au       11.25226992       17.45503656        5.18018493
Au       12.65880367       20.07329204        5.18018493
Au       14.06533741       17.45503656        5.18018493
Au       15.47187115       20.07329204        5.18018493
Au       14.06533741       22.69154752        5.18018493
Au       15.47187115       25.30980300        5.18018493
Au        0.00000000       22.69154752        5.18018493
Au        1.40653374       25.30980300        5.18018493
Au        0.00000000       27.92805848        5.18018493
Au        1.40653374       30.54631397        5.18018493
Au        2.81306748       27.92805848        5.18018493
Au        4.21960122       30.54631397        5.18018493
Au        8.43920244        1.74550365        5.18018493
Au        9.84573618        4.36375914        5.18018493
Au       11.25226992        1.74550365        5.18018493
Au       12.65880367        4.36375914        5.18018493
Au       11.25226992        6.98201462        5.18018493
Au       12.65880367        9.60027010        5.18018493
Au       14.06533741        6.98201462        5.18018493
Au       15.47187115        9.60027010        5.18018493
Au       14.06533741       12.21852559        5.18018493
Au       15.47187115       14.83678107        5.18018493
Au        0.00000000       12.21852559        5.18018493
Au        1.40653374       14.83678107        5.18018493
Au        0.00000000       17.45503656        5.18018493
Au        1.40653374       20.07329204        5.18018493
Au        2.81306748       17.45503656        5.18018493
Au        4.21960122       20.07329204        5.18018493
Au        2.81306748       22.69154752        5.18018493
Au        4.21960122       25.30980300        5.18018493
Au        5.62613496       22.69154752        5.18018493
Au        7.03266870       25.30980300        5.18018493
Au        5.62613496       27.92805848        5.18018493
Au        7.03266870       30.54631397        5.18018493
Au        8.43920244       27.92805848        5.18018493
Au        9.84573618       30.54631397        5.18018493
Au       14.06533741        1.74550365        5.18018493
Au       15.47187115        4.36375914        5.18018493
Au        0.00000000        1.74550365        5.18018493
Au        1.40653374        4.36375914        5.18018493
Au        0.00000000        6.98201462        5.18018493
Au        1.40653374        9.60027010        5.18018493
Au        2.81306748        6.98201462        5.18018493
Au        4.21960122        9.60027010        5.18018493
Au        2.81306748       12.21852559        5.18018493
Au        4.21960122       14.83678107        5.18018493
Au        5.62613496       12.21852559        5.18018493
Au        7.03266870       14.83678107        5.18018493
Au        5.62613496       17.45503656        5.18018493
Au        7.03266870       20.07329204        5.18018493
Au        8.43920244       17.45503656        5.18018493
Au        9.84573618       20.07329204        5.18018493
Au        8.43920244       22.69154752        5.18018493
Au        9.84573618       25.30980300        5.18018493
Au       11.25226992       22.69154752        5.18018493
Au       12.65880366       25.30980300        5.18018493
Au       11.25226992       27.92805848        5.18018493
Au       12.65880366       30.54631397        5.18018493
Au       14.06533740       27.92805848        5.18018493
Au       15.47187114       30.54631397        5.18018493
Au        5.62613496        0.00000000        7.64869987
Au        7.03266870        2.61825548        7.64869987
Au        5.62613496        5.23651097        7.64869987
Au        4.21960122        2.61825548        7.64869987
Au        8.43920244        5.23651097        7.64869987
Au        9.84573618        7.85476645        7.64869987
Au        8.43920244       10.47302194        7.64869987
Au        7.03266870        7.85476645        7.64869987
Au       11.25226992       10.47302194        7.64869987
Au       12.65880367       13.09127742        7.64869987
Au       11.25226992       15.70953289        7.64869987
Au        9.84573618       13.09127742        7.64869987
Au       14.06533741       15.70953289        7.64869987
Au       15.47187115       18.32778838        7.64869987
Au       14.06533741       20.94604386        7.64869987
Au       12.65880367       18.32778838        7.64869987
Au        0.00000000       20.94604386        7.64869987
Au        1.40653374       23.56429935        7.64869987
Au        0.00000000       26.18255483        7.64869987
Au       15.47187115       23.56429935        7.64869987
Au        2.81306748       26.18255483        7.64869987
Au        4.21960122       28.80081031        7.64869987
Au        2.81306748       31.41906580        7.64869987
Au        1.40653374       28.80081031        7.64869987
Au       11.25226992        0.00000000        7.64869987
Au       12.65880367        2.61825548        7.64869987
Au       11.25226992        5.23651097        7.64869987
Au        9.84573618        2.61825548        7.64869987
Au       14.06533741        5.23651097        7.64869987
Au       15.47187115        7.85476645        7.64869987
Au       14.06533741       10.47302194        7.64869987
Au       12.65880367        7.85476645        7.64869987
Au        0.00000000       10.47302194        7.64869987
Au        1.40653374       13.09127742        7.64869987
Au        0.00000000       15.70953289        7.64869987
Au       15.47187115       13.09127742        7.64869987
Au        2.81306748       15.70953289        7.64869987
Au        4.21960122       18.32778838        7.64869987
Au        2.81306748       20.94604386        7.64869987
Au        1.40653374       18.32778838        7.64869987
Au        5.62613496       20.94604386        7.64869987
Au        7.03266870       23.56429935        7.64869987
Au        5.62613496       26.18255483        7.64869987
Au        4.21960122       23.56429935        7.64869987
Au        8.43920244       26.18255483        7.64869987
Au        9.84573618       28.80081031        7.64869987
Au        8.43920244       31.41906580        7.64869987
Au        7.03266870       28.80081031        7.64869987
Au        0.00000000        0.00000000        7.64869987
Au        1.40653374        2.61825548        7.64869987
Au        0.00000000        5.23651097        7.64869987
Au       15.47187115        2.61825548        7.64869987
Au        2.81306748        5.23651097        7.64869987
Au        4.21960122        7.85476645        7.64869987
Au        2.81306748       10.47302194        7.64869987
Au        1.40653374        7.85476645        7.64869987
Au        5.62613496       10.47302194        7.64869987
Au        7.03266870       13.09127742        7.64869987
Au        5.62613496       15.70953289        7.64869987
Au        4.21960122       13.09127742        7.64869987
Au        8.43920244       15.70953289        7.64869987
Au        9.84573618       18.32778838        7.64869987
Au        8.43920244       20.94604386        7.64869987
Au        7.03266870       18.32778838        7.64869987
Au       11.25226992       20.94604386        7.64869987
Au       12.65880366       23.56429935        7.64869987
Au       11.25226992       26.18255483        7.64869987
Au        9.84573618       23.56429935        7.64869987
Au       14.06533740       26.18255483        7.64869987
Au       15.47187114       28.80081031        7.64869987
Au       14.06533740       31.41906580        7.64869987
Au       12.65880366       28.80081031        7.64869987
lattice vectors
     16.87840489 0.0 0.0  
 0.0      31.41906580 0.0 
 0.0  0.0       25.99608373
