424

C       16.28617069       17.03252950       11.80217343
C       15.57906817       18.23727251       11.63144589
C       14.20214011       18.22561745       11.64893957
C       13.48192864       17.02212050       11.79376753
C       14.17897463       15.79394636       11.93941097
C       15.58028182       15.84534113       11.97408823
C       12.04050251       17.01621171       11.81727411
C       11.30647360       18.11828380       11.33342411
C        9.93003133       18.12189616       11.34186481
C        9.23940576       16.99210748       11.82065473
C        9.95611302       15.89268202       12.28343547
C       11.35970579       15.87145378       12.31534261
C       12.11114917       14.66264855       12.68437513
C       13.44604238       14.55013204       12.20226441
C       11.55089153       13.56818280       13.40645053
C       12.20246089       12.32152234       13.40309617
C       13.38677826       12.14173038       12.64314445
C       14.02602531       13.25500112       12.06793657
C       10.32245433       13.73915840       14.22969481
C        9.19134773       12.92500728       14.05558903
C        8.04806753       13.12023980       14.83095927
C        8.02070427       14.12398549       15.80391317
C        9.14719160       14.92964874       15.99628571
C       10.28654954       14.73995027       15.21353977
C       11.63850021       11.17836676       14.17556961
C       11.55512774       11.24438687       15.57428323
C       11.03365803       10.17755918       16.30795403
C       10.57783132        9.03043087       15.65149783
C       10.65265728        8.95705659       14.25722023
C       11.18367108       10.02086032       13.52646439
C       13.95538759       10.77464689       12.47211135
C       14.41699315       10.03865297       13.57355187
C       14.95069270        8.76053527       13.40226463
C       15.02134961        8.19359632       12.12604589
C       14.55829123        8.91674494       11.02276575
C       14.03401185       10.19877399       11.19528615
C       15.25129856       13.03828770       11.24827195
C       15.27697671       13.47879656        9.91497873
C       16.39829502       13.26300261        9.11252821
C        0.50270157       12.60632368        9.63212395
C        0.49101494       12.17049438       10.96067853
C       16.38233698       12.38154275       11.75962897
C        7.77817397       16.96744136       11.80206655
C        7.07105243       15.76256674       11.63235679
C        5.69414879       15.77414918       11.65056109
C        4.97394224       16.97767917       11.79510759
C        5.67095832       18.20598728       11.93992559
C        7.07231280       18.15467832       11.97383133
C        3.53252410       16.98349708       11.81876207
C        2.79853913       15.88121324       11.33534095
C        1.42210751       15.87772691       11.34348781
C        0.73142557       17.00782177       11.82148683
C        1.44808052       18.10738054       12.28401447
C        2.85168156       18.12845578       12.31624469
C        3.60314410       19.33730997       12.68498343
C        4.93796914       19.44982298       12.20265723
C        3.04286803       20.43177606       13.40702599
C        3.69424724       21.67852889       13.40336597
C        4.87841097       21.85830614       12.64315861
C        5.51775162       20.74501962       12.06807113
C        1.81466970       20.26062400       14.23059407
C        0.68337710       21.07462463       14.05690923
C       16.55638874       20.87922912       14.83272355
C       16.52953502       19.87546656       15.80568457
C        0.64020748       19.06991347       15.99758895
C        1.77923501       19.25977641       15.21439525
C        3.13029699       22.82178896       14.17570961
C        3.04721396       22.75604020       15.57445359
C        2.52589967       23.82301593       16.30803491
C        2.06996105       24.97001589       15.65145295
C        2.14444433       25.04310990       14.25714069
C        2.67528444       23.97916783       13.52647081
C        5.44677917       23.22544015       12.47168481
C        5.90860171       23.96171835       13.57282075
C        6.44210972       25.23988341       13.40112075
C        6.51231158       25.80657168       12.12478583
C        6.04902072       25.08311553       11.02178207
C        5.52497246       23.80106570       11.19469583
C        6.74296362       20.96183694       11.24834285
C        6.76860302       20.52142699        9.91501743
C        7.88987933       20.73735358        9.11253487
C        9.01023498       21.39404855        9.63212997
C        8.99859276       21.82974930       10.96072419
C        7.87399880       21.61858329       11.75970027
H       16.11984638       19.17544995       11.49778333
H       13.66503454       19.17041598       11.57159943
H       16.14576114       14.94315677       12.18732625
H       11.83124247       18.96814977       10.89768567
H        9.38021234       18.96927232       10.92917509
H        9.39683846       15.02709234       12.62304397
H        9.21274504       12.13800561       13.30013501
H        7.17353695       12.48538436       14.67456877
H        7.12531720       14.27777242       16.40921833
H        9.13614205       15.71401324       16.75603587
H       11.16111957       15.37969467       15.34877375
H       11.89517637       12.14759579       16.08478663
H       10.97841101       10.24481197       17.39654111
H       10.16585127        8.19697357       16.22414569
H       10.29993427        8.06490540       13.73543937
H       11.25623503        9.95633404       12.43916551
H       14.34776638       10.47409382       14.57217877
H       15.30889872        8.20306709       14.27032605
H       15.43544815        7.19216484       11.99201597
H       14.60994053        8.48301306       10.02183251
H       13.68792555       10.77097863       10.33218775
H       14.40533890       13.99980335        9.51369933
H       16.39809983       13.61037262        8.07724399
H        1.38084076       12.43854919        9.00538805
H        1.36185076       11.66121565       11.37846897
H       16.37446676       12.03346829       12.79347137
H        7.61178279       14.82433708       11.49892921
H        5.15706709       14.82928278       11.57388665
H        7.63790936       19.05695230       12.18636355
H        3.32331965       15.03107499       10.90014549
H        0.87234627       15.03022340       10.93099229
H        0.88879953       18.97320193       12.62306339
H        0.70434302       21.86165157       13.30146741
H       15.68171421       21.51397896       14.67670385
H       15.63441614       19.72158192       16.41134583
H        0.62955536       18.28552225       16.75731841
H        2.65393447       18.62012734       15.34929967
H        3.38740601       21.85294060       16.08505737
H        2.47090701       23.75598469       17.39665407
H        1.65813602       25.80358529       16.22403753
H        1.79157874       25.93515760       13.73528049
H        2.74760326       24.04353687       12.43914917
H        5.83970306       23.52650454       14.57157129
H        6.80041454       25.79761217       14.26897637
H        6.92621739       26.80803967       11.99040621
H        6.10030046       25.51668468       10.02076847
H        5.17878937       23.22860671       10.33180441
H        5.89697838       20.00038423        9.51374665
H        7.88966240       20.39006942        8.07722185
H        9.88832807       21.56194575        9.00536237
H        9.86942451       22.33903659       11.37851147
H        7.86617228       21.96656612       12.79356641
Au        0.00000000        0.00000000        0.20166981
Au        1.41799638        2.60765143        0.20166981
Au        2.83599276        0.00000000        0.20166981
Au        4.25398913        2.60765143        0.20166981
Au        2.83599276        5.21530286        0.20166981
Au        4.25398913        7.82295430        0.20166981
Au        5.67198551        5.21530286        0.20166981
Au        7.08998189        7.82295430        0.20166981
Au        5.67198551       10.43060573        0.20166981
Au        7.08998189       13.03825716        0.20166981
Au        8.50797827       10.43060573        0.20166981
Au        9.92597465       13.03825716        0.20166981
Au        8.50797827       15.64590858        0.20166981
Au        9.92597465       18.25356002        0.20166981
Au       11.34397102       15.64590858        0.20166981
Au       12.76196741       18.25356002        0.20166981
Au       11.34397102       20.86121145        0.20166981
Au       12.76196741       23.46886288        0.20166981
Au       14.17996379       20.86121145        0.20166981
Au       15.59796017       23.46886288        0.20166981
Au       14.17996379       26.07651431        0.20166981
Au       15.59796017       28.68416575        0.20166981
Au        0.00000000       26.07651431        0.20166981
Au        1.41799638       28.68416575        0.20166981
Au        5.67198551        0.00000000        0.20166981
Au        7.08998189        2.60765143        0.20166981
Au        8.50797827        0.00000000        0.20166981
Au        9.92597465        2.60765143        0.20166981
Au        8.50797827        5.21530286        0.20166981
Au        9.92597465        7.82295430        0.20166981
Au       11.34397102        5.21530286        0.20166981
Au       12.76196741        7.82295430        0.20166981
Au       11.34397102       10.43060573        0.20166981
Au       12.76196741       13.03825716        0.20166981
Au       14.17996379       10.43060573        0.20166981
Au       15.59796017       13.03825716        0.20166981
Au       14.17996379       15.64590858        0.20166981
Au       15.59796017       18.25356002        0.20166981
Au        0.00000000       15.64590858        0.20166981
Au        1.41799638       18.25356002        0.20166981
Au        0.00000000       20.86121145        0.20166981
Au        1.41799638       23.46886288        0.20166981
Au        2.83599276       20.86121145        0.20166981
Au        4.25398914       23.46886288        0.20166981
Au        2.83599276       26.07651431        0.20166981
Au        4.25398914       28.68416575        0.20166981
Au        5.67198552       26.07651431        0.20166981
Au        7.08998189       28.68416575        0.20166981
Au       11.34397102        0.00000000        0.20166981
Au       12.76196741        2.60765143        0.20166981
Au       14.17996379        0.00000000        0.20166981
Au       15.59796017        2.60765143        0.20166981
Au       14.17996379        5.21530286        0.20166981
Au       15.59796017        7.82295430        0.20166981
Au        0.00000000        5.21530286        0.20166981
Au        1.41799638        7.82295430        0.20166981
Au        0.00000000       10.43060573        0.20166981
Au        1.41799638       13.03825716        0.20166981
Au        2.83599276       10.43060573        0.20166981
Au        4.25398914       13.03825716        0.20166981
Au        2.83599276       15.64590858        0.20166981
Au        4.25398914       18.25356002        0.20166981
Au        5.67198552       15.64590858        0.20166981
Au        7.08998189       18.25356002        0.20166981
Au        5.67198552       20.86121145        0.20166981
Au        7.08998189       23.46886288        0.20166981
Au        8.50797827       20.86121145        0.20166981
Au        9.92597465       23.46886288        0.20166981
Au        8.50797827       26.07651431        0.20166981
Au        9.92597465       28.68416575        0.20166981
Au       11.34397103       26.07651431        0.20166981
Au       12.76196741       28.68416575        0.20166981
Au        5.67198551        3.47686858        2.66018716
Au        4.25398913        0.86921715        2.66018716
Au        2.83599276        3.47686858        2.66018716
Au        1.41799638        0.86921715        2.66018716
Au        8.50797827        8.69217143        2.66018716
Au        7.08998189        6.08452000        2.66018716
Au        5.67198551        8.69217143        2.66018716
Au        4.25398913        6.08452000        2.66018716
Au       11.34397102       13.90747430        2.66018716
Au        9.92597465       11.29982287        2.66018716
Au        8.50797827       13.90747430        2.66018716
Au        7.08998189       11.29982287        2.66018716
Au       14.17996379       19.12277716        2.66018716
Au       12.76196741       16.51512573        2.66018716
Au       11.34397102       19.12277716        2.66018716
Au        9.92597465       16.51512573        2.66018716
Au        0.00000000       24.33808003        2.66018716
Au       15.59796017       21.73042860        2.66018716
Au       14.17996379       24.33808003        2.66018716
Au       12.76196741       21.73042860        2.66018716
Au        2.83599276       29.55338289        2.66018716
Au        1.41799638       26.94573146        2.66018716
Au        0.00000000       29.55338289        2.66018716
Au       15.59796017       26.94573146        2.66018716
Au       11.34397102        3.47686858        2.66018716
Au        9.92597465        0.86921715        2.66018716
Au        8.50797827        3.47686858        2.66018716
Au        7.08998189        0.86921715        2.66018716
Au       14.17996379        8.69217143        2.66018716
Au       12.76196741        6.08452000        2.66018716
Au       11.34397102        8.69217143        2.66018716
Au        9.92597465        6.08452000        2.66018716
Au        0.00000000       13.90747430        2.66018716
Au       15.59796017       11.29982287        2.66018716
Au       14.17996379       13.90747430        2.66018716
Au       12.76196741       11.29982287        2.66018716
Au        2.83599276       19.12277716        2.66018716
Au        1.41799638       16.51512573        2.66018716
Au        0.00000000       19.12277716        2.66018716
Au       15.59796017       16.51512573        2.66018716
Au        5.67198552       24.33808003        2.66018716
Au        4.25398914       21.73042860        2.66018716
Au        2.83599276       24.33808003        2.66018716
Au        1.41799638       21.73042860        2.66018716
Au        8.50797827       29.55338289        2.66018716
Au        7.08998189       26.94573146        2.66018716
Au        5.67198552       29.55338289        2.66018716
Au        4.25398914       26.94573146        2.66018716
Au        0.00000000        3.47686858        2.66018716
Au       15.59796017        0.86921715        2.66018716
Au       14.17996379        3.47686858        2.66018716
Au       12.76196741        0.86921715        2.66018716
Au        2.83599276        8.69217143        2.66018716
Au        1.41799638        6.08452000        2.66018716
Au        0.00000000        8.69217143        2.66018716
Au       15.59796017        6.08452000        2.66018716
Au        5.67198552       13.90747430        2.66018716
Au        4.25398914       11.29982287        2.66018716
Au        2.83599276       13.90747430        2.66018716
Au        1.41799638       11.29982287        2.66018716
Au        8.50797827       19.12277716        2.66018716
Au        7.08998189       16.51512573        2.66018716
Au        5.67198552       19.12277716        2.66018716
Au        4.25398914       16.51512573        2.66018716
Au       11.34397103       24.33808003        2.66018716
Au        9.92597465       21.73042860        2.66018716
Au        8.50797827       24.33808003        2.66018716
Au        7.08998189       21.73042860        2.66018716
Au       14.17996378       29.55338289        2.66018716
Au       12.76196741       26.94573146        2.66018716
Au       11.34397103       29.55338289        2.66018716
Au        9.92597465       26.94573146        2.66018716
Au        2.83599276        1.73843428        5.11870451
Au        4.25398913        4.34608572        5.11870451
Au        5.67198551        1.73843428        5.11870451
Au        7.08998189        4.34608572        5.11870451
Au        5.67198551        6.95373715        5.11870451
Au        7.08998189        9.56138858        5.11870451
Au        8.50797827        6.95373715        5.11870451
Au        9.92597465        9.56138858        5.11870451
Au        8.50797827       12.16904001        5.11870451
Au        9.92597465       14.77669145        5.11870451
Au       11.34397102       12.16904001        5.11870451
Au       12.76196741       14.77669145        5.11870451
Au       11.34397102       17.38434288        5.11870451
Au       12.76196741       19.99199431        5.11870451
Au       14.17996379       17.38434288        5.11870451
Au       15.59796017       19.99199431        5.11870451
Au       14.17996379       22.59964574        5.11870451
Au       15.59796017       25.20729717        5.11870451
Au        0.00000000       22.59964574        5.11870451
Au        1.41799638       25.20729717        5.11870451
Au        0.00000000       27.81494860        5.11870451
Au        1.41799638       30.42260003        5.11870451
Au        2.83599276       27.81494860        5.11870451
Au        4.25398914       30.42260003        5.11870451
Au        8.50797827        1.73843428        5.11870451
Au        9.92597465        4.34608572        5.11870451
Au       11.34397102        1.73843428        5.11870451
Au       12.76196741        4.34608572        5.11870451
Au       11.34397102        6.95373715        5.11870451
Au       12.76196741        9.56138858        5.11870451
Au       14.17996379        6.95373715        5.11870451
Au       15.59796017        9.56138858        5.11870451
Au       14.17996379       12.16904001        5.11870451
Au       15.59796017       14.77669145        5.11870451
Au        0.00000000       12.16904001        5.11870451
Au        1.41799638       14.77669145        5.11870451
Au        0.00000000       17.38434288        5.11870451
Au        1.41799638       19.99199431        5.11870451
Au        2.83599276       17.38434288        5.11870451
Au        4.25398914       19.99199431        5.11870451
Au        2.83599276       22.59964574        5.11870451
Au        4.25398914       25.20729717        5.11870451
Au        5.67198552       22.59964574        5.11870451
Au        7.08998189       25.20729717        5.11870451
Au        5.67198552       27.81494860        5.11870451
Au        7.08998189       30.42260003        5.11870451
Au        8.50797827       27.81494860        5.11870451
Au        9.92597465       30.42260003        5.11870451
Au       14.17996379        1.73843428        5.11870451
Au       15.59796017        4.34608572        5.11870451
Au        0.00000000        1.73843428        5.11870451
Au        1.41799638        4.34608572        5.11870451
Au        0.00000000        6.95373715        5.11870451
Au        1.41799638        9.56138858        5.11870451
Au        2.83599276        6.95373715        5.11870451
Au        4.25398914        9.56138858        5.11870451
Au        2.83599276       12.16904001        5.11870451
Au        4.25398914       14.77669145        5.11870451
Au        5.67198552       12.16904001        5.11870451
Au        7.08998189       14.77669145        5.11870451
Au        5.67198552       17.38434288        5.11870451
Au        7.08998189       19.99199431        5.11870451
Au        8.50797827       17.38434288        5.11870451
Au        9.92597465       19.99199431        5.11870451
Au        8.50797827       22.59964574        5.11870451
Au        9.92597465       25.20729717        5.11870451
Au       11.34397103       22.59964574        5.11870451
Au       12.76196741       25.20729717        5.11870451
Au       11.34397103       27.81494860        5.11870451
Au       12.76196741       30.42260003        5.11870451
Au       14.17996378       27.81494860        5.11870451
Au       15.59796016       30.42260003        5.11870451
Au        5.67198551        0.00000000        7.57722185
Au        7.08998189        2.60765143        7.57722185
Au        5.67198551        5.21530286        7.57722185
Au        4.25398913        2.60765143        7.57722185
Au        8.50797827        5.21530286        7.57722185
Au        9.92597465        7.82295430        7.57722185
Au        8.50797827       10.43060573        7.57722185
Au        7.08998189        7.82295430        7.57722185
Au       11.34397102       10.43060573        7.57722185
Au       12.76196741       13.03825716        7.57722185
Au       11.34397102       15.64590858        7.57722185
Au        9.92597465       13.03825716        7.57722185
Au       14.17996379       15.64590858        7.57722185
Au       15.59796017       18.25356002        7.57722185
Au       14.17996379       20.86121145        7.57722185
Au       12.76196741       18.25356002        7.57722185
Au        0.00000000       20.86121145        7.57722185
Au        1.41799638       23.46886288        7.57722185
Au        0.00000000       26.07651431        7.57722185
Au       15.59796017       23.46886288        7.57722185
Au        2.83599276       26.07651431        7.57722185
Au        4.25398914       28.68416575        7.57722185
Au        2.83599276       31.29181718        7.57722185
Au        1.41799638       28.68416575        7.57722185
Au       11.34397102        0.00000000        7.57722185
Au       12.76196741        2.60765143        7.57722185
Au       11.34397102        5.21530286        7.57722185
Au        9.92597465        2.60765143        7.57722185
Au       14.17996379        5.21530286        7.57722185
Au       15.59796017        7.82295430        7.57722185
Au       14.17996379       10.43060573        7.57722185
Au       12.76196741        7.82295430        7.57722185
Au        0.00000000       10.43060573        7.57722185
Au        1.41799638       13.03825716        7.57722185
Au        0.00000000       15.64590858        7.57722185
Au       15.59796017       13.03825716        7.57722185
Au        2.83599276       15.64590858        7.57722185
Au        4.25398914       18.25356002        7.57722185
Au        2.83599276       20.86121145        7.57722185
Au        1.41799638       18.25356002        7.57722185
Au        5.67198552       20.86121145        7.57722185
Au        7.08998189       23.46886288        7.57722185
Au        5.67198552       26.07651431        7.57722185
Au        4.25398914       23.46886288        7.57722185
Au        8.50797827       26.07651431        7.57722185
Au        9.92597465       28.68416575        7.57722185
Au        8.50797827       31.29181718        7.57722185
Au        7.08998189       28.68416575        7.57722185
Au        0.00000000        0.00000000        7.57722185
Au        1.41799638        2.60765143        7.57722185
Au        0.00000000        5.21530286        7.57722185
Au       15.59796017        2.60765143        7.57722185
Au        2.83599276        5.21530286        7.57722185
Au        4.25398914        7.82295430        7.57722185
Au        2.83599276       10.43060573        7.57722185
Au        1.41799638        7.82295430        7.57722185
Au        5.67198552       10.43060573        7.57722185
Au        7.08998189       13.03825716        7.57722185
Au        5.67198552       15.64590858        7.57722185
Au        4.25398914       13.03825716        7.57722185
Au        8.50797827       15.64590858        7.57722185
Au        9.92597465       18.25356002        7.57722185
Au        8.50797827       20.86121145        7.57722185
Au        7.08998189       18.25356002        7.57722185
Au       11.34397103       20.86121145        7.57722185
Au       12.76196741       23.46886288        7.57722185
Au       11.34397103       26.07651431        7.57722185
Au        9.92597465       23.46886288        7.57722185
Au       14.17996378       26.07651431        7.57722185
Au       15.59796016       28.68416575        7.57722185
Au       14.17996378       31.29181718        7.57722185
Au       12.76196741       28.68416575        7.57722185
lattice vectors
     17.01595654 0.0 0.0  
 0.0      31.29181718 0.0 
 0.0  0.0       27.39665407
